File C:\Users\2017140\Desktop\新建文件夹 (2)\test.$2k was saved on 8/10/18 at 13:24:18
 
TABLE:  "ACTIVE DEGREES OF FREEDOM"
   UX=Yes   UY=Yes   UZ=Yes   RX=Yes   RY=Yes   RZ=Yes
 
TABLE:  "ANALYSIS OPTIONS"
   Solver=Advanced   SolverProc=Auto   Force32Bit=No   StiffCase=None   GeomMod=No
 
TABLE:  "AREA SECTION PROPERTIES"
   Section=roof   Material=C30   MatAngle=0   AreaType=Shell   Type=Shell-Thin   DrillDOF=No   Thickness=120   BendThick=120   Color=Red   F11Mod=0   F22Mod=0   F12Mod=0   M11Mod=1   M22Mod=1   M12Mod=1   V13Mod=1   V23Mod=1   MMod=0 _
        WMod=0   Notes="Added 2018/8/10 12:50:34"
 
TABLE:  "AREA SECTION PROPERTY DESIGN PARAMETERS"
   Section=roof   RebarMat=None   RebarOpt=Default
 
TABLE:  "AUTO COMBINATION OPTION DATA 01 - GENERAL"
   DesignType=Steel   AutoGen=Yes
 
TABLE:  "AUTO COMBINATION OPTION DATA 02 - USER DATA"
   DesignType=Steel   LSType=Strength   LCName=DEAD
   DesignType=Steel   LSType=Strength   LCName=LIVE
   DesignType=Steel   LSType=Strength   LCName=buckling
   DesignType=Steel   LSType=Deflection   LCName=DEAD
   DesignType=Steel   LSType=Deflection   LCName=LIVE
   DesignType=Steel   LSType=Deflection   LCName=buckling
 
TABLE:  "AUTO WAVE 3 - WAVE CHARACTERISTICS - GENERAL"
   WaveChar=Default   WaveType="From Theory"   KinFactor=1   SWaterDepth=45   WaveHeight=18   WavePeriod=12   WaveTheory=Linear
 
TABLE:  "BRIDGE DESIGN PREFERENCES - JTG-D62-2004"
   Importance="Class II"   FactLim=1
 
TABLE:  "CASE - BUCKLING 1 - GENERAL"
   Case=buckling   NumBuckMode=20   EigenTol=.000000001
   Case=buckling-trunk   NumBuckMode=20   EigenTol=.000000001
 
TABLE:  "CASE - BUCKLING 2 - LOAD ASSIGNMENTS"
   Case=buckling   LoadType="Load pattern"   LoadName=LIVE   LoadSF=1
   Case=buckling-trunk   LoadType="Load pattern"   LoadName=buckling   LoadSF=1
 
TABLE:  "CASE - MODAL 1 - GENERAL"
   Case=MODAL   ModeType=Eigen   MaxNumModes=12   MinNumModes=1   EigenShift=0   EigenCutoff=0   EigenTol=.000000001   AutoShift=Yes
 
TABLE:  "CASE - STATIC 1 - LOAD ASSIGNMENTS"
   Case=DEAD   LoadType="Load pattern"   LoadName=DEAD   LoadSF=1
   Case=DEAD-None   LoadType="Load pattern"   LoadName=DEAD   LoadSF=1
   Case=LIVE   LoadType="Load pattern"   LoadName=LIVE   LoadSF=1
   Case=buckling-trunk-static   LoadType="Load pattern"   LoadName=buckling   LoadSF=1
 
TABLE:  "CASE - STATIC 2 - NONLINEAR LOAD APPLICATION"
   Case=DEAD-None   LoadApp="Full Load"   MonitorDOF=U1   MonitorJt=5
 
TABLE:  "CASE - STATIC 4 - NONLINEAR PARAMETERS"
   Case=DEAD-None   Unloading="Unload Entire"   GeoNonLin=None   ResultsSave="Final State"   MaxTotal=200   MaxNull=50   MaxIterCS=10   MaxIterNR=40   ItConvTol=.0001   UseEvStep=Yes   EvLumpTol=.01   LSPerIter=20   LSTol=.1 _
        LSStepFact=1.618   FrameTC=Yes   FrameHinge=Yes   CableTC=Yes   LinkTC=Yes   LinkOther=Yes   TFMaxIter=10   TFTol=.01   TFAccelFact=1   TFNoStop=No
 
TABLE:  "CONNECTIVITY - FRAME"
   Frame=1   JointI=7   JointJ=8   IsCurved=No
   Frame=2   JointI=8   JointJ=9   IsCurved=No
   Frame=3   JointI=8   JointJ=10   IsCurved=No
   Frame=4   JointI=8   JointJ=11   IsCurved=No
   Frame=5   JointI=8   JointJ=12   IsCurved=No
   Frame=6   JointI=9   JointJ=2   IsCurved=No
   Frame=7   JointI=9   JointJ=13   IsCurved=No
   Frame=8   JointI=12   JointJ=1   IsCurved=No
   Frame=9   JointI=12   JointJ=14   IsCurved=No
   Frame=10   JointI=11   JointJ=15   IsCurved=No
   Frame=11   JointI=11   JointJ=5   IsCurved=No
   Frame=12   JointI=10   JointJ=16   IsCurved=No
   Frame=13   JointI=10   JointJ=6   IsCurved=No
 
TABLE:  "COORDINATE SYSTEMS"
   Name=GLOBAL   Type=Cartesian   X=0   Y=0   Z=0   AboutZ=0   AboutY=0   AboutX=0
 
TABLE:  "DATABASE DOCUMENTATION"
 
TABLE:  "DATABASE FORMAT TYPES"
   UnitsCurr=Yes   OverrideE=No
 
TABLE:  "FRAME AUTO MESH ASSIGNMENTS"
   Frame=1   AutoMesh=Yes   AtJoints=Yes   AtFrames=No   NumSegments=0   MaxLength=0   MaxDegrees=0
   Frame=2   AutoMesh=Yes   AtJoints=Yes   AtFrames=No   NumSegments=0   MaxLength=0   MaxDegrees=0
   Frame=3   AutoMesh=Yes   AtJoints=Yes   AtFrames=No   NumSegments=0   MaxLength=0   MaxDegrees=0
   Frame=4   AutoMesh=Yes   AtJoints=Yes   AtFrames=No   NumSegments=0   MaxLength=0   MaxDegrees=0
   Frame=5   AutoMesh=Yes   AtJoints=Yes   AtFrames=No   NumSegments=0   MaxLength=0   MaxDegrees=0
   Frame=6   AutoMesh=Yes   AtJoints=Yes   AtFrames=No   NumSegments=0   MaxLength=0   MaxDegrees=0
   Frame=7   AutoMesh=Yes   AtJoints=Yes   AtFrames=No   NumSegments=0   MaxLength=0   MaxDegrees=0
   Frame=8   AutoMesh=Yes   AtJoints=Yes   AtFrames=No   NumSegments=0   MaxLength=0   MaxDegrees=0
   Frame=9   AutoMesh=Yes   AtJoints=Yes   AtFrames=No   NumSegments=0   MaxLength=0   MaxDegrees=0
   Frame=10   AutoMesh=Yes   AtJoints=Yes   AtFrames=No   NumSegments=0   MaxLength=0   MaxDegrees=0
   Frame=11   AutoMesh=Yes   AtJoints=Yes   AtFrames=No   NumSegments=0   MaxLength=0   MaxDegrees=0
   Frame=12   AutoMesh=Yes   AtJoints=Yes   AtFrames=No   NumSegments=0   MaxLength=0   MaxDegrees=0
   Frame=13   AutoMesh=Yes   AtJoints=Yes   AtFrames=No   NumSegments=0   MaxLength=0   MaxDegrees=0
 
TABLE:  "FRAME DESIGN PROCEDURES"
   Frame=1   DesignProc="From Material"
   Frame=2   DesignProc="From Material"
   Frame=3   DesignProc="From Material"
   Frame=4   DesignProc="From Material"
   Frame=5   DesignProc="From Material"
   Frame=6   DesignProc="From Material"
   Frame=7   DesignProc="From Material"
   Frame=8   DesignProc="From Material"
   Frame=9   DesignProc="From Material"
   Frame=10   DesignProc="From Material"
   Frame=11   DesignProc="From Material"
   Frame=12   DesignProc="From Material"
   Frame=13   DesignProc="From Material"
 
TABLE:  "FRAME OUTPUT STATION ASSIGNMENTS"
   Frame=1   StationType=MinNumSta   MinNumSta=3   AddAtElmInt=Yes   AddAtPtLoad=Yes
   Frame=2   StationType=MinNumSta   MinNumSta=3   AddAtElmInt=Yes   AddAtPtLoad=Yes
   Frame=3   StationType=MinNumSta   MinNumSta=3   AddAtElmInt=Yes   AddAtPtLoad=Yes
   Frame=4   StationType=MinNumSta   MinNumSta=3   AddAtElmInt=Yes   AddAtPtLoad=Yes
   Frame=5   StationType=MinNumSta   MinNumSta=3   AddAtElmInt=Yes   AddAtPtLoad=Yes
   Frame=6   StationType=MinNumSta   MinNumSta=3   AddAtElmInt=Yes   AddAtPtLoad=Yes
   Frame=7   StationType=MinNumSta   MinNumSta=3   AddAtElmInt=Yes   AddAtPtLoad=Yes
   Frame=8   StationType=MaxStaSpcg   MaxStaSpcg=.5   AddAtElmInt=Yes   AddAtPtLoad=Yes
   Frame=9   StationType=MinNumSta   MinNumSta=3   AddAtElmInt=Yes   AddAtPtLoad=Yes
   Frame=10   StationType=MinNumSta   MinNumSta=3   AddAtElmInt=Yes   AddAtPtLoad=Yes
   Frame=11   StationType=MinNumSta   MinNumSta=3   AddAtElmInt=Yes   AddAtPtLoad=Yes
   Frame=12   StationType=MinNumSta   MinNumSta=3   AddAtElmInt=Yes   AddAtPtLoad=Yes
   Frame=13   StationType=MinNumSta   MinNumSta=3   AddAtElmInt=Yes   AddAtPtLoad=Yes
 
TABLE:  "FRAME SECTION ASSIGNMENTS"
   Frame=1   AutoSelect=N.A.   AnalSect=trunk   MatProp=Default
   Frame=2   AutoSelect=N.A.   AnalSect=branch1   MatProp=Default
   Frame=3   AutoSelect=N.A.   AnalSect=branch1   MatProp=Default
   Frame=4   AutoSelect=N.A.   AnalSect=branch1   MatProp=Default
   Frame=5   AutoSelect=N.A.   AnalSect=branch1   MatProp=Default
   Frame=6   AutoSelect=N.A.   AnalSect=branch2   MatProp=Default
   Frame=7   AutoSelect=N.A.   AnalSect=branch2   MatProp=Default
   Frame=8   AutoSelect=N.A.   AnalSect=branch2   MatProp=Default
   Frame=9   AutoSelect=N.A.   AnalSect=branch2   MatProp=Default
   Frame=10   AutoSelect=N.A.   AnalSect=branch2   MatProp=Default
   Frame=11   AutoSelect=N.A.   AnalSect=branch2   MatProp=Default
   Frame=12   AutoSelect=N.A.   AnalSect=branch2   MatProp=Default
   Frame=13   AutoSelect=N.A.   AnalSect=branch2   MatProp=Default
 
TABLE:  "FRAME SECTION PROPERTIES 01 - GENERAL"
   SectionName=branch1   Material=Q345   Shape=Pipe   t3=.984   tw=.0197   Area=5.96799245783757E-02   TorsConst=1.38795001531213E-02   I33=6.93975007656065E-03   I22=6.93975007656065E-03   AS2=2.98482637536913E-02 _
        AS3=2.98482637536913E-02   S33=1.41051830824404E-02   S22=1.41051830824404E-02   Z33=1.83210759106667E-02   Z22=1.83210759106667E-02   R33=.341002672276919   R22=.341002672276919   Color=4227327   FromFile=No   AMod=1   A2Mod=1 _
        A3Mod=1   JMod=1   I2Mod=1   I3Mod=1   MMod=1   WMod=1   Notes="Added 2018/8/10 12:48:33"
   SectionName=branch2   Material=Q345   Shape=Pipe   t3=.5   tw=.01   Area=.01539380400259   TorsConst=9.24397930355529E-04   I33=4.62198965177765E-04   I22=4.62198965177765E-04   AS2=7.69903884249469E-03   AS3=7.69903884249469E-03 _
        S33=1.84879586071106E-03   S22=1.84879586071106E-03   Z33=2.40133333333334E-03   Z22=2.40133333333334E-03   R33=.173277234511635   R22=.173277234511635   Color=Blue   FromFile=No   AMod=1   A2Mod=1   A3Mod=1   JMod=1   I2Mod=1 _
        I3Mod=1   MMod=1   WMod=1   Notes="Added 2018/8/10 12:48:57"
   SectionName=trunk   Material=Q345   Shape=Pipe   t3=1.117   tw=.0224   Area=7.70288359370742E-02   TorsConst=2.30826712656258E-02   I33=1.15413356328129E-02   I22=1.15413356328129E-02   AS2=3.85251691603174E-02   AS3=3.85251691603174E-02 _
        S33=.020664880273613   S22=.020664880273613   Z33=2.68422876586666E-02   Z22=2.68422876586666E-02   R33=.387080566549136   R22=.387080566549136   Color=White   FromFile=No   AMod=1   A2Mod=1   A3Mod=1   JMod=1   I2Mod=1   I3Mod=1 _
        MMod=1   WMod=1   Notes="Added 2018/8/10 12:47:36"
 
TABLE:  "FUNCTION - PLOT FUNCTIONS"
   PlotFunc="Input Energy"   Type=Energy   Component=Input   Mode=All
 
TABLE:  "FUNCTION - POWER SPECTRAL DENSITY - USER"
   Name=UNIFPSD   Frequency=0   Value=1
   Name=UNIFPSD   Frequency=1   Value=1
 
TABLE:  "FUNCTION - RESPONSE SPECTRUM - USER"
   Name=UNIFRS   Period=0   Accel=1   FuncDamp=.05
   Name=UNIFRS   Period=1   Accel=1
 
TABLE:  "FUNCTION - STEADY STATE - USER"
   Name=UNIFSS   Frequency=0   Value=1
   Name=UNIFSS   Frequency=1   Value=1
 
TABLE:  "FUNCTION - TIME HISTORY - USER"
   Name=RAMPTH   Time=0   Value=0
   Name=RAMPTH   Time=1   Value=1
   Name=RAMPTH   Time=4   Value=1
   Name=UNIFTH   Time=0   Value=1
   Name=UNIFTH   Time=1   Value=1
 
TABLE:  "GRID LINES"
   CoordSys=GLOBAL   AxisDir=X   XRYZCoord=-9.35307436087298   LineType=Primary   LineColor=Gray8Dark   Visible=Yes   BubbleLoc=End   AllVisible=No   BubbleSize=1
   CoordSys=GLOBAL   AxisDir=X   XRYZCoord=0   LineType=Primary   LineColor=Gray8Dark   Visible=Yes   BubbleLoc=End
   CoordSys=GLOBAL   AxisDir=X   XRYZCoord=9.3530743608725   LineType=Primary   LineColor=Gray8Dark   Visible=Yes   BubbleLoc=End
   CoordSys=GLOBAL   AxisDir=Y   XRYZCoord=-5.40000000000105   LineType=Primary   LineColor=Gray8Dark   Visible=Yes   BubbleLoc=End
   CoordSys=GLOBAL   AxisDir=Y   XRYZCoord=0   LineType=Primary   LineColor=Gray8Dark   Visible=Yes   BubbleLoc=End
   CoordSys=GLOBAL   AxisDir=Y   XRYZCoord=5.40000000000114   LineType=Primary   LineColor=Gray8Dark   Visible=Yes   BubbleLoc=End
   CoordSys=GLOBAL   AxisDir=Z   XRYZCoord=0   LineType=Primary   LineColor=Gray8Dark   Visible=Yes   BubbleLoc=End
   CoordSys=GLOBAL   AxisDir=Z   XRYZCoord=8.5999999999994   LineType=Primary   LineColor=Gray8Dark   Visible=Yes   BubbleLoc=End
 
TABLE:  "GROUPS 1 - DEFINITIONS"
   GroupName=ALL   Selection=Yes   SectionCut=Yes   Steel=Yes   Concrete=Yes   Aluminum=Yes   ColdFormed=Yes   Stage=Yes   Bridge=Yes   AutoSeismic=No   AutoWind=No   SelDesSteel=No   SelDesAlum=No   SelDesCold=No   MassWeight=Yes   Color=Red
   GroupName=DXFIN   Selection=Yes   SectionCut=Yes   Steel=Yes   Concrete=Yes   Aluminum=Yes   ColdFormed=Yes   Stage=Yes   Bridge=Yes   AutoSeismic=No   AutoWind=No   SelDesSteel=No   SelDesAlum=No   SelDesCold=No   MassWeight=Yes   Color=Black
 
TABLE:  "GROUPS 2 - ASSIGNMENTS"
   GroupName=DXFIN   ObjectType=Frame   ObjectLabel=1
   GroupName=DXFIN   ObjectType=Frame   ObjectLabel=2
   GroupName=DXFIN   ObjectType=Frame   ObjectLabel=3
   GroupName=DXFIN   ObjectType=Frame   ObjectLabel=4
   GroupName=DXFIN   ObjectType=Frame   ObjectLabel=5
   GroupName=DXFIN   ObjectType=Frame   ObjectLabel=6
   GroupName=DXFIN   ObjectType=Frame   ObjectLabel=7
   GroupName=DXFIN   ObjectType=Frame   ObjectLabel=8
   GroupName=DXFIN   ObjectType=Frame   ObjectLabel=9
   GroupName=DXFIN   ObjectType=Frame   ObjectLabel=10
   GroupName=DXFIN   ObjectType=Frame   ObjectLabel=11
   GroupName=DXFIN   ObjectType=Frame   ObjectLabel=12
   GroupName=DXFIN   ObjectType=Frame   ObjectLabel=13
 
TABLE:  "JOINT COORDINATES"
   Joint=1   CoordSys=GLOBAL   CoordType=Cartesian   XorR=-9.35307436087298   Y=1.3561296E-12   Z=3.5   SpecialJt=No
   Joint=2   CoordSys=GLOBAL   CoordType=Cartesian   XorR=-9.35307436087288   Y=-5.39999999999851   Z=5.2999999999994   SpecialJt=No
   Joint=5   CoordSys=GLOBAL   CoordType=Cartesian   XorR=9.35307436087175   Y=-5.40000000000105   Z=8.5999999999994   SpecialJt=No
   Joint=6   CoordSys=GLOBAL   CoordType=Cartesian   XorR=9.3530743608725   Y=-2.750199E-13   Z=6.8   SpecialJt=No
   Joint=7   CoordSys=GLOBAL   CoordType=Cartesian   XorR=0   Y=0   Z=0   SpecialJt=No
   Joint=8   CoordSys=GLOBAL   CoordType=Cartesian   XorR=0   Y=1.808E-16   Z=2.952   SpecialJt=No
   Joint=9   CoordSys=GLOBAL   CoordType=Cartesian   XorR=-4.86207436087298   Y=-4.0899999999972   Z=5.129   SpecialJt=No
   Joint=10   CoordSys=GLOBAL   CoordType=Cartesian   XorR=4.67592563912687   Y=2.17600000000196   Z=4.113   SpecialJt=No
   Joint=11   CoordSys=GLOBAL   CoordType=Cartesian   XorR=3.67792563912687   Y=-3.86399999999804   Z=6.929   SpecialJt=No
   Joint=12   CoordSys=GLOBAL   CoordType=Cartesian   XorR=-3.36507436087313   Y=1.77600000000196   Z=3.472   SpecialJt=No
   Joint=13   CoordSys=GLOBAL   CoordType=Cartesian   XorR=-2.50614872174434   Y=-5.40000000000028   Z=6.50788383248809   SpecialJt=No
   Joint=14   CoordSys=GLOBAL   CoordType=Cartesian   XorR=-2.50614872174354   Y=3.95307436087322   Z=3.50000000000044   SpecialJt=No
   Joint=15   CoordSys=GLOBAL   CoordType=Cartesian   XorR=2.50614872174361   Y=-5.40000000000084   Z=7.3921161675108   SpecialJt=No
   Joint=16   CoordSys=GLOBAL   CoordType=Cartesian   XorR=2.50614872174447   Y=3.95307436087255   Z=4.38423233502314   SpecialJt=No
 
TABLE:  "JOINT LOADS - FORCE"
   Joint=1   LoadPat=DEAD   CoordSys=GLOBAL   F1=0   F2=0   F3=-62.3   M1=0   M2=0   M3=0
   Joint=1   LoadPat=LIVE   CoordSys=GLOBAL   F1=0   F2=0   F3=-25.2   M1=0   M2=0   M3=0
   Joint=2   LoadPat=DEAD   CoordSys=GLOBAL   F1=0   F2=0   F3=-62.3   M1=0   M2=0   M3=0
   Joint=2   LoadPat=LIVE   CoordSys=GLOBAL   F1=0   F2=0   F3=-25.2   M1=0   M2=0   M3=0
   Joint=5   LoadPat=DEAD   CoordSys=GLOBAL   F1=0   F2=0   F3=-62.3   M1=0   M2=0   M3=0
   Joint=5   LoadPat=LIVE   CoordSys=GLOBAL   F1=0   F2=0   F3=-25.2   M1=0   M2=0   M3=0
   Joint=6   LoadPat=DEAD   CoordSys=GLOBAL   F1=0   F2=0   F3=-62.3   M1=0   M2=0   M3=0
   Joint=6   LoadPat=LIVE   CoordSys=GLOBAL   F1=0   F2=0   F3=-25.2   M1=0   M2=0   M3=0
   Joint=8   LoadPat=buckling   CoordSys=GLOBAL   F1=0   F2=0   F3=-1   M1=0   M2=0   M3=0
   Joint=13   LoadPat=DEAD   CoordSys=GLOBAL   F1=0   F2=0   F3=-124.6   M1=0   M2=0   M3=0
   Joint=13   LoadPat=LIVE   CoordSys=GLOBAL   F1=0   F2=0   F3=-50.4   M1=0   M2=0   M3=0
   Joint=14   LoadPat=DEAD   CoordSys=GLOBAL   F1=0   F2=0   F3=-124.6   M1=0   M2=0   M3=0
   Joint=14   LoadPat=LIVE   CoordSys=GLOBAL   F1=0   F2=0   F3=-50.4   M1=0   M2=0   M3=0
   Joint=15   LoadPat=DEAD   CoordSys=GLOBAL   F1=0   F2=0   F3=-124.6   M1=0   M2=0   M3=0
   Joint=15   LoadPat=LIVE   CoordSys=GLOBAL   F1=0   F2=0   F3=-50.4   M1=0   M2=0   M3=0
   Joint=16   LoadPat=DEAD   CoordSys=GLOBAL   F1=0   F2=0   F3=-124.6   M1=0   M2=0   M3=0
   Joint=16   LoadPat=LIVE   CoordSys=GLOBAL   F1=0   F2=0   F3=-50.4   M1=0   M2=0   M3=0
 
TABLE:  "JOINT PATTERN DEFINITIONS"
   Pattern=Default
 
TABLE:  "JOINT RESTRAINT ASSIGNMENTS"
   Joint=7   U1=Yes   U2=Yes   U3=Yes   R1=Yes   R2=Yes   R3=Yes
 
TABLE:  "LOAD CASE DEFINITIONS"
   Case=DEAD   Type=LinStatic   InitialCond=Zero   DesTypeOpt="Prog Det"   DesignType=DEAD   DesActOpt="Prog Det"   DesignAct=Non-Composite   AutoType=None   RunCase=Yes
   Case=DEAD-None   Type=NonStatic   InitialCond=Zero   DesTypeOpt=User   DesignType=OTHER   DesActOpt="Prog Det"   DesignAct=Non-Composite   AutoType=None   RunCase=Yes
   Case=MODAL   Type=LinModal   InitialCond=Zero   DesTypeOpt="Prog Det"   DesignType=OTHER   DesActOpt="Prog Det"   DesignAct=Other   AutoType=None   RunCase=Yes
   Case=LIVE   Type=LinStatic   InitialCond=Zero   DesTypeOpt="Prog Det"   DesignType=LIVE   DesActOpt="Prog Det"   DesignAct="Short-Term Composite"   AutoType=None   RunCase=Yes
   Case=buckling   Type=LinBuckling   InitialCond=DEAD-None   DesTypeOpt="Prog Det"   DesignType=LIVE   DesActOpt="Prog Det"   DesignAct=Other   AutoType=None   RunCase=Yes
   Case=buckling-trunk-static   Type=LinStatic   InitialCond=Zero   DesTypeOpt="Prog Det"   DesignType=OTHER   DesActOpt="Prog Det"   DesignAct=Other   AutoType=None   RunCase=Yes
   Case=buckling-trunk   Type=LinBuckling   InitialCond=Zero   DesTypeOpt="Prog Det"   DesignType=OTHER   DesActOpt="Prog Det"   DesignAct=Other   AutoType=None   RunCase=Yes
 
TABLE:  "LOAD PATTERN DEFINITIONS"
   LoadPat=DEAD   DesignType=DEAD   SelfWtMult=1
   LoadPat=LIVE   DesignType=LIVE   SelfWtMult=0
   LoadPat=buckling   DesignType=OTHER   SelfWtMult=0
 
TABLE:  "MASSES 1 - MASS SOURCE"
   MassFrom=Elements
 
TABLE:  "MATERIAL PROPERTIES 01 - GENERAL"
   Material=4000Psi   Type=Concrete   SymType=Isotropic   TempDepend=No   Color=Red   Notes="Customary f'c 4000 psi 2018/8/10 12:45:31"
   Material=A992Fy50   Type=Steel   SymType=Isotropic   TempDepend=No   Color=Cyan   Notes="ASTM A992 Grade 50 2018/8/10 12:45:31"
   Material=C30   Type=Concrete   SymType=Isotropic   TempDepend=No   Color=Blue   Notes="China GB GB50010 C30 added 2018/8/10 12:51:08"
   Material=Q345   Type=Steel   SymType=Isotropic   TempDepend=No   Color=Blue   Notes="China GB Q345 added 2018/8/10 12:47:24"
 
TABLE:  "MATERIAL PROPERTIES 02 - BASIC MECHANICAL PROPERTIES"
   Material=4000Psi   UnitWeight=23.5631216161854   UnitMass=2.40276960558926   E1=24855578.0600518   G12=10356490.8583549   U12=.2   A1=.0000099
   Material=A992Fy50   UnitWeight=76.9728639422648   UnitMass=7.84904737995992   E1=199947978.795958   G12=76903068.767676   U12=.3   A1=.0000117
   Material=C30   UnitWeight=25   UnitMass=2.55   E1=30000000   G12=12500000   U12=.2   A1=.00001
   Material=Q345   UnitWeight=78.5   UnitMass=8   E1=200000000   G12=76923076.9230769   U12=.3   A1=.0000117
 
TABLE:  "MATERIAL PROPERTIES 03A - STEEL DATA"
   Material=A992Fy50   Fy=344737.894475789   Fu=448159.262818526   EffFy=379211.683923368   EffFu=492975.189100378   SSCurveOpt=Simple   SSHysType=Kinematic   SHard=.015   SMax=.11   SRup=.17   FinalSlope=-.1
   Material=Q345   Fy=345000   Fu=510000   EffFy=380000   EffFu=560000   SSCurveOpt=Simple   SSHysType=Kinematic   SHard=.015   SMax=.11   SRup=.17   FinalSlope=-.1
 
TABLE:  "MATERIAL PROPERTIES 03B - CONCRETE DATA"
   Material=4000Psi   Fc=27579.0315580631   LtWtConc=No   SSCurveOpt=Mander   SSHysType=Takeda   SFc=.00221914   SCap=.005   FinalSlope=-.1   FAngle=0   DAngle=0
   Material=C30   Fc=30000   LtWtConc=No   SSCurveOpt=Mander   SSHysType=Takeda   SFc=.002   SCap=.005   FinalSlope=-.1   FAngle=0   DAngle=0
 
TABLE:  "MATERIAL PROPERTIES 06 - DAMPING PARAMETERS"
   Material=4000Psi   ModalRatio=0   VisMass=0   VisStiff=0   HysMass=0   HysStiff=0
   Material=A992Fy50   ModalRatio=0   VisMass=0   VisStiff=0   HysMass=0   HysStiff=0
   Material=C30   ModalRatio=0   VisMass=0   VisStiff=0   HysMass=0   HysStiff=0
   Material=Q345   ModalRatio=0   VisMass=0   VisStiff=0   HysMass=0   HysStiff=0
 
TABLE:  "OPTIONS - COLORS - DISPLAY"
   DeviceType=Screen   Points=White   LinesFrame=Yellow   LinesFrmDL=Yellow   LinesCable=Green   LinesTendon=Green   SpringLinks=Green   Restraints=Green   Releases=Green   Axes=Cyan   Text=Green   ShadowLines=Gray8Dark _
        GuideLines=Gray8Dark   Highlight=Red   Selection=White   AreaFillBot=Red   AreaFillTop=16744703   AreaFillSd=Red   AreaEdge=DarkRed   SolidF1=Red   SolidF2=Blue   SolidF3=Green   SolidF4=Yellow   SolidF5=White   SolidF6=Cyan _
        SolidEdge=DarkRed   Floor=Gray4   Background=Black   BGLowLeft=Black   BGLowRight=Black   BGUpRight=Black   Darkness=0
   DeviceType=Printer   Points=Gray8Dark   LinesFrame=Black   LinesFrmDL=Gray4   LinesCable=Black   LinesTendon=Black   SpringLinks=Gray8Dark   Restraints=Gray8Dark   Releases=Gray4   Axes=Black   Text=Black   ShadowLines=Gray4 _
        GuideLines=Gray4   Highlight=Black   Selection=Black   AreaFillBot=Gray4   AreaFillTop=Gray8Dark   AreaFillSd=Gray4   AreaEdge=Black   SolidF1=Gray1Light   SolidF2=Gray2   SolidF3=Gray3   SolidF4=Gray4   SolidF5=Gray5 _
        SolidF6=Gray6   SolidEdge=Black   Floor=Gray4   Background=White   BGLowLeft=White   BGLowRight=White   BGUpRight=White   Darkness=.5
   DeviceType="Color Printer"   Points=Blue   LinesFrame=Blue   LinesFrmDL=Blue   LinesCable=Green   LinesTendon=Green   SpringLinks=Green   Restraints=Green   Releases=Green   Axes=Cyan   Text=Black   ShadowLines=Gray8Dark _
        GuideLines=Gray8Dark   Highlight=Red   Selection=10504778   AreaFillBot=Red   AreaFillTop=16744703   AreaFillSd=Red   AreaEdge=DarkRed   SolidF1=Red   SolidF2=Blue   SolidF3=Green   SolidF4=Yellow   SolidF5=White   SolidF6=Cyan _
        SolidEdge=DarkRed   Floor=Gray4   Background=White   BGLowLeft=White   BGLowRight=White   BGUpRight=White   Darkness=.5
 
TABLE:  "OPTIONS - COLORS - OUTPUT"
   DeviceType=Screen   Contour1=13107400   Contour2=6553828   Contour3=Red   Contour4=16639   Contour5=Orange   Contour6=43775   Contour7=54527   Contour8=Yellow   Contour9=65408   Contour10=Green   Contour11=8453888   Contour12=Cyan _
        Contour13=16755200   Contour14=16733440   Contour15=Blue   Transpare=.5   Ratio1=Cyan   Ratio2=Green   Ratio3=Yellow   Ratio4=Orange   Ratio5=Red   RatioNotD=Gray4   RatioNotC=Red   RatioVal1=.5   RatioVal2=.7   RatioVal3=.9 _
        RatioVal4=1   DFillPos=Blue   DFillNeg=Red   DFillRPos=Green   DFillRNeg=Green
   DeviceType=Printer   Contour1=Black   Contour2=3158064   Contour3=4210752   Contour4=5263440   Contour5=6316128   Contour6=7368816   Contour7=Gray8Dark   Contour8=Gray7   Contour9=Gray6   Contour10=Gray5   Contour11=Gray4 _
        Contour12=Gray3   Contour13=Gray2   Contour14=Gray1Light   Contour15=White   Transpare=0   Ratio1=Gray2   Ratio2=Gray4   Ratio3=Gray8Dark   Ratio4=4210752   Ratio5=Black   RatioNotD=Gray4   RatioNotC=Black   RatioVal1=.5 _
        RatioVal2=.7   RatioVal3=.9   RatioVal4=1   DFillPos=Gray8Dark   DFillNeg=Gray8Dark   DFillRPos=4210752   DFillRNeg=4210752
   DeviceType="Color Printer"   Contour1=13107400   Contour2=6553828   Contour3=Red   Contour4=16639   Contour5=Orange   Contour6=43775   Contour7=54527   Contour8=Yellow   Contour9=65408   Contour10=Green   Contour11=8453888 _
        Contour12=Cyan   Contour13=16755200   Contour14=16733440   Contour15=Blue   Transpare=0   Ratio1=Cyan   Ratio2=Green   Ratio3=Yellow   Ratio4=Orange   Ratio5=Red   RatioNotD=Gray4   RatioNotC=Red   RatioVal1=.5   RatioVal2=.7 _
        RatioVal3=.9   RatioVal4=1   DFillPos=Blue   DFillNeg=Red   DFillRPos=Green   DFillRNeg=Green
 
TABLE:  "OVERWRITES - STEEL DESIGN - CHINESE 2010"
   Frame=1   DesignSect="Program Determined"   FrameType="Program Determined"   Fy=0   RLLF=0   AreaRatio=0   XLMajor=0   XLMinor=0   MueMajor=0   MueMinor=0   BetaMMajor=0   BetaMMinor=0   BetaTMajor=0   BetaTMinor=0   PhiMajor=0 _
        PhiMinor=0   PhiBMajor=0   PhiBMinor=0   GammaMajor=0   GammaMinor=0   DeltaMajor=0   DeltaMinor=0   EtaSect=0   EtaBC=0   KLoRLimitC=0   LoRLimitT=0   F=0   Fv=0   SeisMag=0   DualMag=0   FictShear="Program Determined" _
        TransCol="Program Determined"   RolledSect="Program Determined"   GasCut="Program Determined"   BothPinned="Program Determined"   CheckDefl="Program Determined"   DeflType="Program Determined"   DLRat=0   SDLAndLLRat=0   LLRat=0 _
        TotalRat=0   NetRat=0   DLAbs=0   SDLAndLLAbs=0   LLAbs=0   TotalAbs=0   NetAbs=0   SpecCamber=0
   Frame=2   DesignSect="Program Determined"   FrameType="Program Determined"   Fy=0   RLLF=0   AreaRatio=0   XLMajor=0   XLMinor=0   MueMajor=0   MueMinor=0   BetaMMajor=0   BetaMMinor=0   BetaTMajor=0   BetaTMinor=0   PhiMajor=0 _
        PhiMinor=0   PhiBMajor=0   PhiBMinor=0   GammaMajor=0   GammaMinor=0   DeltaMajor=0   DeltaMinor=0   EtaSect=0   EtaBC=0   KLoRLimitC=0   LoRLimitT=0   F=0   Fv=0   SeisMag=0   DualMag=0   FictShear="Program Determined" _
        TransCol="Program Determined"   RolledSect="Program Determined"   GasCut="Program Determined"   BothPinned="Program Determined"   CheckDefl="Program Determined"   DeflType="Program Determined"   DLRat=0   SDLAndLLRat=0   LLRat=0 _
        TotalRat=0   NetRat=0   DLAbs=0   SDLAndLLAbs=0   LLAbs=0   TotalAbs=0   NetAbs=0   SpecCamber=0
   Frame=3   DesignSect="Program Determined"   FrameType="Program Determined"   Fy=0   RLLF=0   AreaRatio=0   XLMajor=0   XLMinor=0   MueMajor=0   MueMinor=0   BetaMMajor=0   BetaMMinor=0   BetaTMajor=0   BetaTMinor=0   PhiMajor=0 _
        PhiMinor=0   PhiBMajor=0   PhiBMinor=0   GammaMajor=0   GammaMinor=0   DeltaMajor=0   DeltaMinor=0   EtaSect=0   EtaBC=0   KLoRLimitC=0   LoRLimitT=0   F=0   Fv=0   SeisMag=0   DualMag=0   FictShear="Program Determined" _
        TransCol="Program Determined"   RolledSect="Program Determined"   GasCut="Program Determined"   BothPinned="Program Determined"   CheckDefl="Program Determined"   DeflType="Program Determined"   DLRat=0   SDLAndLLRat=0   LLRat=0 _
        TotalRat=0   NetRat=0   DLAbs=0   SDLAndLLAbs=0   LLAbs=0   TotalAbs=0   NetAbs=0   SpecCamber=0
   Frame=4   DesignSect="Program Determined"   FrameType="Program Determined"   Fy=0   RLLF=0   AreaRatio=0   XLMajor=0   XLMinor=0   MueMajor=0   MueMinor=0   BetaMMajor=0   BetaMMinor=0   BetaTMajor=0   BetaTMinor=0   PhiMajor=0 _
        PhiMinor=0   PhiBMajor=0   PhiBMinor=0   GammaMajor=0   GammaMinor=0   DeltaMajor=0   DeltaMinor=0   EtaSect=0   EtaBC=0   KLoRLimitC=0   LoRLimitT=0   F=0   Fv=0   SeisMag=0   DualMag=0   FictShear="Program Determined" _
        TransCol="Program Determined"   RolledSect="Program Determined"   GasCut="Program Determined"   BothPinned="Program Determined"   CheckDefl="Program Determined"   DeflType="Program Determined"   DLRat=0   SDLAndLLRat=0   LLRat=0 _
        TotalRat=0   NetRat=0   DLAbs=0   SDLAndLLAbs=0   LLAbs=0   TotalAbs=0   NetAbs=0   SpecCamber=0
   Frame=5   DesignSect="Program Determined"   FrameType="Program Determined"   Fy=0   RLLF=0   AreaRatio=0   XLMajor=0   XLMinor=0   MueMajor=0   MueMinor=0   BetaMMajor=0   BetaMMinor=0   BetaTMajor=0   BetaTMinor=0   PhiMajor=0 _
        PhiMinor=0   PhiBMajor=0   PhiBMinor=0   GammaMajor=0   GammaMinor=0   DeltaMajor=0   DeltaMinor=0   EtaSect=0   EtaBC=0   KLoRLimitC=0   LoRLimitT=0   F=0   Fv=0   SeisMag=0   DualMag=0   FictShear="Program Determined" _
        TransCol="Program Determined"   RolledSect="Program Determined"   GasCut="Program Determined"   BothPinned="Program Determined"   CheckDefl="Program Determined"   DeflType="Program Determined"   DLRat=0   SDLAndLLRat=0   LLRat=0 _
        TotalRat=0   NetRat=0   DLAbs=0   SDLAndLLAbs=0   LLAbs=0   TotalAbs=0   NetAbs=0   SpecCamber=0
   Frame=6   DesignSect="Program Determined"   FrameType="Program Determined"   Fy=0   RLLF=0   AreaRatio=0   XLMajor=0   XLMinor=0   MueMajor=0   MueMinor=0   BetaMMajor=0   BetaMMinor=0   BetaTMajor=0   BetaTMinor=0   PhiMajor=0 _
        PhiMinor=0   PhiBMajor=0   PhiBMinor=0   GammaMajor=0   GammaMinor=0   DeltaMajor=0   DeltaMinor=0   EtaSect=0   EtaBC=0   KLoRLimitC=0   LoRLimitT=0   F=0   Fv=0   SeisMag=0   DualMag=0   FictShear="Program Determined" _
        TransCol="Program Determined"   RolledSect="Program Determined"   GasCut="Program Determined"   BothPinned="Program Determined"   CheckDefl="Program Determined"   DeflType="Program Determined"   DLRat=0   SDLAndLLRat=0   LLRat=0 _
        TotalRat=0   NetRat=0   DLAbs=0   SDLAndLLAbs=0   LLAbs=0   TotalAbs=0   NetAbs=0   SpecCamber=0
   Frame=7   DesignSect="Program Determined"   FrameType="Program Determined"   Fy=0   RLLF=0   AreaRatio=0   XLMajor=0   XLMinor=0   MueMajor=0   MueMinor=0   BetaMMajor=0   BetaMMinor=0   BetaTMajor=0   BetaTMinor=0   PhiMajor=0 _
        PhiMinor=0   PhiBMajor=0   PhiBMinor=0   GammaMajor=0   GammaMinor=0   DeltaMajor=0   DeltaMinor=0   EtaSect=0   EtaBC=0   KLoRLimitC=0   LoRLimitT=0   F=0   Fv=0   SeisMag=0   DualMag=0   FictShear="Program Determined" _
        TransCol="Program Determined"   RolledSect="Program Determined"   GasCut="Program Determined"   BothPinned="Program Determined"   CheckDefl="Program Determined"   DeflType="Program Determined"   DLRat=0   SDLAndLLRat=0   LLRat=0 _
        TotalRat=0   NetRat=0   DLAbs=0   SDLAndLLAbs=0   LLAbs=0   TotalAbs=0   NetAbs=0   SpecCamber=0
   Frame=8   DesignSect="Program Determined"   FrameType="Program Determined"   Fy=0   RLLF=0   AreaRatio=0   XLMajor=0   XLMinor=0   MueMajor=0   MueMinor=0   BetaMMajor=0   BetaMMinor=0   BetaTMajor=0   BetaTMinor=0   PhiMajor=0 _
        PhiMinor=0   PhiBMajor=0   PhiBMinor=0   GammaMajor=0   GammaMinor=0   DeltaMajor=0   DeltaMinor=0   EtaSect=0   EtaBC=0   KLoRLimitC=0   LoRLimitT=0   F=0   Fv=0   SeisMag=0   DualMag=0   FictShear="Program Determined" _
        TransCol="Program Determined"   RolledSect="Program Determined"   GasCut="Program Determined"   BothPinned="Program Determined"   CheckDefl="Program Determined"   DeflType="Program Determined"   DLRat=0   SDLAndLLRat=0   LLRat=0 _
        TotalRat=0   NetRat=0   DLAbs=0   SDLAndLLAbs=0   LLAbs=0   TotalAbs=0   NetAbs=0   SpecCamber=0
   Frame=9   DesignSect="Program Determined"   FrameType="Program Determined"   Fy=0   RLLF=0   AreaRatio=0   XLMajor=0   XLMinor=0   MueMajor=0   MueMinor=0   BetaMMajor=0   BetaMMinor=0   BetaTMajor=0   BetaTMinor=0   PhiMajor=0 _
        PhiMinor=0   PhiBMajor=0   PhiBMinor=0   GammaMajor=0   GammaMinor=0   DeltaMajor=0   DeltaMinor=0   EtaSect=0   EtaBC=0   KLoRLimitC=0   LoRLimitT=0   F=0   Fv=0   SeisMag=0   DualMag=0   FictShear="Program Determined" _
        TransCol="Program Determined"   RolledSect="Program Determined"   GasCut="Program Determined"   BothPinned="Program Determined"   CheckDefl="Program Determined"   DeflType="Program Determined"   DLRat=0   SDLAndLLRat=0   LLRat=0 _
        TotalRat=0   NetRat=0   DLAbs=0   SDLAndLLAbs=0   LLAbs=0   TotalAbs=0   NetAbs=0   SpecCamber=0
   Frame=10   DesignSect="Program Determined"   FrameType="Program Determined"   Fy=0   RLLF=0   AreaRatio=0   XLMajor=0   XLMinor=0   MueMajor=0   MueMinor=0   BetaMMajor=0   BetaMMinor=0   BetaTMajor=0   BetaTMinor=0   PhiMajor=0 _
        PhiMinor=0   PhiBMajor=0   PhiBMinor=0   GammaMajor=0   GammaMinor=0   DeltaMajor=0   DeltaMinor=0   EtaSect=0   EtaBC=0   KLoRLimitC=0   LoRLimitT=0   F=0   Fv=0   SeisMag=0   DualMag=0   FictShear="Program Determined" _
        TransCol="Program Determined"   RolledSect="Program Determined"   GasCut="Program Determined"   BothPinned="Program Determined"   CheckDefl="Program Determined"   DeflType="Program Determined"   DLRat=0   SDLAndLLRat=0   LLRat=0 _
        TotalRat=0   NetRat=0   DLAbs=0   SDLAndLLAbs=0   LLAbs=0   TotalAbs=0   NetAbs=0   SpecCamber=0
   Frame=11   DesignSect="Program Determined"   FrameType="Program Determined"   Fy=0   RLLF=0   AreaRatio=0   XLMajor=0   XLMinor=0   MueMajor=0   MueMinor=0   BetaMMajor=0   BetaMMinor=0   BetaTMajor=0   BetaTMinor=0   PhiMajor=0 _
        PhiMinor=0   PhiBMajor=0   PhiBMinor=0   GammaMajor=0   GammaMinor=0   DeltaMajor=0   DeltaMinor=0   EtaSect=0   EtaBC=0   KLoRLimitC=0   LoRLimitT=0   F=0   Fv=0   SeisMag=0   DualMag=0   FictShear="Program Determined" _
        TransCol="Program Determined"   RolledSect="Program Determined"   GasCut="Program Determined"   BothPinned="Program Determined"   CheckDefl="Program Determined"   DeflType="Program Determined"   DLRat=0   SDLAndLLRat=0   LLRat=0 _
        TotalRat=0   NetRat=0   DLAbs=0   SDLAndLLAbs=0   LLAbs=0   TotalAbs=0   NetAbs=0   SpecCamber=0
   Frame=12   DesignSect="Program Determined"   FrameType="Program Determined"   Fy=0   RLLF=0   AreaRatio=0   XLMajor=0   XLMinor=0   MueMajor=0   MueMinor=0   BetaMMajor=0   BetaMMinor=0   BetaTMajor=0   BetaTMinor=0   PhiMajor=0 _
        PhiMinor=0   PhiBMajor=0   PhiBMinor=0   GammaMajor=0   GammaMinor=0   DeltaMajor=0   DeltaMinor=0   EtaSect=0   EtaBC=0   KLoRLimitC=0   LoRLimitT=0   F=0   Fv=0   SeisMag=0   DualMag=0   FictShear="Program Determined" _
        TransCol="Program Determined"   RolledSect="Program Determined"   GasCut="Program Determined"   BothPinned="Program Determined"   CheckDefl="Program Determined"   DeflType="Program Determined"   DLRat=0   SDLAndLLRat=0   LLRat=0 _
        TotalRat=0   NetRat=0   DLAbs=0   SDLAndLLAbs=0   LLAbs=0   TotalAbs=0   NetAbs=0   SpecCamber=0
   Frame=13   DesignSect="Program Determined"   FrameType="Program Determined"   Fy=0   RLLF=0   AreaRatio=0   XLMajor=0   XLMinor=0   MueMajor=0   MueMinor=0   BetaMMajor=0   BetaMMinor=0   BetaTMajor=0   BetaTMinor=0   PhiMajor=0 _
        PhiMinor=0   PhiBMajor=0   PhiBMinor=0   GammaMajor=0   GammaMinor=0   DeltaMajor=0   DeltaMinor=0   EtaSect=0   EtaBC=0   KLoRLimitC=0   LoRLimitT=0   F=0   Fv=0   SeisMag=0   DualMag=0   FictShear="Program Determined" _
        TransCol="Program Determined"   RolledSect="Program Determined"   GasCut="Program Determined"   BothPinned="Program Determined"   CheckDefl="Program Determined"   DeflType="Program Determined"   DLRat=0   SDLAndLLRat=0   LLRat=0 _
        TotalRat=0   NetRat=0   DLAbs=0   SDLAndLLAbs=0   LLAbs=0   TotalAbs=0   NetAbs=0   SpecCamber=0
 
TABLE:  "PREFERENCES - ALUMINUM DESIGN - AA-ASD 2000"
   THDesign=Envelopes   FrameType="Moment Frame"   SRatioLimit=1   MaxIter=1   LatFact=1.33333333333333   UseLatFact=No   Bridge=No
 
TABLE:  "PREFERENCES - COLD FORMED DESIGN - AISI-ASD96"
   THDesign=Envelopes   FrameType="Braced Frame"   SRatioLimit=1   MaxIter=1   OmegaBS=1.67   OmegaBUS=1.67   OmegaBLTB=1.67   OmegaVS=1.67   OmegaVNS=1.5   OmegaT=1.67   OmegaC=1.8
 
TABLE:  "PREFERENCES - CONCRETE DESIGN - CHINESE 2010"
   THDesign=Envelopes   NumCurves=24   NumPoints=11   PatLLF=0   UFLimit=1   StrucSys=Frame-Shearwall   TallBldg=Yes   FieldType=II   SeisGrade="Grade II"   ImpFactor=1   ColDesign=Simplified
 
TABLE:  "PREFERENCES - DIMENSIONAL"
   MergeTol=.001   FineGrid=.25   Nudge=.25   SelectTol=3   SnapTol=12   SLineThick=2   PLineThick=4   MaxFont=8   MinFont=3   AutoZoom=10   ShrinkFact=70   TextFileLen=240
 
TABLE:  "PREFERENCES - STEEL DESIGN - CHINESE 2010"
   THDesign=Envelopes   FrameType="Sway Moment Frame, SMF"   PatLLF=0   SRatioLimit=1   MaxIter=1   TallBldg=No   Gamma0=1   IgnoreBoT=Yes   BeamMandN=No   CheckDefl=No   DLRat=120   SDLAndLLRat=120   LLRat=500   TotalRat=400   NetRat=500
 
TABLE:  "PROGRAM CONTROL"
   ProgramName=SAP2000   Version=15.1.0   CurrUnits="KN, m, C"   SteelCode="Chinese 2010"   ConcCode="Chinese 2010"   AlumCode="AA-ASD 2000"   ColdCode=AISI-ASD96   BridgeCode=JTG-D62-2004   RegenHinge=Yes
 
TABLE:  "PROJECT INFORMATION"
   Item="Company Name"
   Item="Client Name"
   Item="Project Name"
   Item="Project Number"
   Item="Model Name"
   Item="Model Description"
   Item="Revision Number"
   Item="Frame Type"
   Item=Engineer
   Item=Checker
   Item=Supervisor
   Item="Issue Code"
   Item="Design Code"
 
TABLE:  "REBAR SIZES"
   RebarID=#2   Area=.000032258   Diameter=.00635
   RebarID=#3   Area=7.09675996154547E-05   Diameter=.009525
   RebarID=#4   Area=1.29032001922727E-04   Diameter=.0127
   RebarID=#5   Area=1.99999601538181E-04   Diameter=.015875
   RebarID=#6   Area=2.83870398461819E-04   Diameter=.01905
   RebarID=#7   Area=3.87096015381813E-04   Diameter=.022225
   RebarID=#8   Area=5.09676413843632E-04   Diameter=.0254
   RebarID=#9   Area=.00064516   Diameter=2.86512005329132E-02
   RebarID=#10   Area=8.1935318769455E-04   Diameter=3.22579995155334E-02
   RebarID=#11   Area=1.00644956308365E-03   Diameter=3.58139991521835E-02
   RebarID=#14   Area=.00145161   Diameter=4.30021989583969E-02
   RebarID=#18   Area=.00258064   Diameter=5.73277992248535E-02
   RebarID=10M   Area=1.00000004162606E-04   Diameter=1.13000003604438E-02
   RebarID=15M   Area=2.00000008325212E-04   Diameter=1.60000002402959E-02
   RebarID=20M   Area=3.00000012487818E-04   Diameter=1.95000002928606E-02
   RebarID=25M   Area=5.00000020813031E-04   Diameter=2.52000011414055E-02
   RebarID=30M   Area=7.00000029138243E-04   Diameter=2.99000000675832E-02
   RebarID=35M   Area=1.00000004162606E-03   Diameter=3.57000012990997E-02
   RebarID=45M   Area=1.50000006243909E-03   Diameter=4.37000014192476E-02
   RebarID=55M   Area=2.50000010406515E-03   Diameter=.056400002372922
   RebarID=6d   Area=2.83000004150781E-05   Diameter=6.00000009011096E-03
   RebarID=8d   Area=5.03000013308514E-05   Diameter=8.00000012014795E-03
   RebarID=10d   Area=7.85000032676458E-05   Diameter=1.00000001501849E-02
   RebarID=12d   Area=1.13000004703745E-04   Diameter=1.20000001802219E-02
   RebarID=14d   Area=1.54000006410413E-04   Diameter=1.40000002102589E-02
   RebarID=16d   Area=2.01000008366838E-04   Diameter=1.60000002402959E-02
   RebarID=20d   Area=3.14000013070583E-04   Diameter=2.00000003003699E-02
   RebarID=25d   Area=4.91000020438396E-04   Diameter=2.50000003754623E-02
   RebarID=26d   Area=5.31000022103439E-04   Diameter=2.60000003904808E-02
   RebarID=28d   Area=6.16000025641654E-04   Diameter=2.80000004205178E-02
   RebarID=N12   Area=1.13000004703745E-04   Diameter=1.20000001802219E-02
   RebarID=N16   Area=2.01000008366838E-04   Diameter=1.60000002402959E-02
   RebarID=N20   Area=3.14000013070583E-04   Diameter=2.00000003003699E-02
   RebarID=N24   Area=4.5200001881498E-04   Diameter=2.40000003604438E-02
   RebarID=N28   Area=6.16000025641654E-04   Diameter=2.80000004205178E-02
   RebarID=N32   Area=8.04000033467353E-04   Diameter=3.20000004805918E-02
   RebarID=N36   Area=1.02000004245858E-03   Diameter=3.60000005406658E-02
 
TABLE:  "SOLID PROPERTY DEFINITIONS"
   SolidProp=SOLID1   Material=4000Psi   MatAngleA=0   MatAngleB=0   MatAngleC=0   InComp=Yes   Color=Magenta   Notes="Added 2018/8/10 12:45:31"
 
END TABLE DATA
